%chk=benzene.chk
# opt=tight hf/sto-3g geom=connectivity

Title Card Required

0 1
 C                  0.35347500   -1.34099100    0.00000000
 C                  1.33807200   -0.36436700   -0.00000400
 C                  0.98459500    0.97661400    0.00000500
 C                 -0.35348500    1.34098800   -0.00000100
 C                 -1.33807000    0.36437700   -0.00000400
 C                 -0.98458700   -0.97662100    0.00000200
 H                  0.62942900   -2.38784000    0.00000100
 H                  2.38264400   -0.64882300   -0.00000700
 H                  1.75321700    1.73902100    0.00000200
 H                 -0.62942500    2.38784100   -0.00000100
 H                 -2.38264500    0.64881900    0.00000000
 H                 -1.75321900   -1.73901800    0.00000600

 1 2 1.5 6 1.5 7 1.0
 2 3 1.5 8 1.0
 3 4 1.5 9 1.0
 4 5 1.5 10 1.0
 5 6 1.5 11 1.0
 6 12 1.0
 7
 8
 9
 10
 11
 12

